tests/fuzzer/corpus_json/21_random_015.json
{
  "version": "1.0",
  "type": "input",
  "is_batch": false,
  "attributes": {},
  "data": {
    "node": [
      {
        "id": 0,
        "u_rated": 230.0
      },
      {
        "id": 1,
        "u_rated": 230.0
      },
      {
        "id": 2,
        "u_rated": 230.0
      },
      {
        "id": 3,
        "u_rated": 230.0
      },
      {
        "id": 4,
        "u_rated": 230.0
      }
    ],
    "source": [
      {
        "id": 5,
        "node": 0,
        "status": 1,
        "u_ref": 0.9072352888554525,
        "u_ref_angle": 0.0,
        "sk": 521364767.19243836,
        "rx_ratio": 0.45650692279018257,
        "z01_ratio": 1.0
      },
      {
        "id": 6,
        "node": 4,
        "status": 1,
        "u_ref": 1.0,
        "u_ref_angle": 0.0,
        "sk": 55042722.44724114,
        "rx_ratio": 0.1,
        "z01_ratio": 1.0
      }
    ],
    "line": [
      {
        "id": 7,
        "from_node": 0,
        "to_node": 1,
        "from_status": 1,
        "to_status": 1,
        "r1": 4.024371828189144,
        "x1": 0.7362417823576323,
        "c1": 6.947772726402895e-07,
        "tan1": 0.0,
        "r0": 0.3,
        "x0": 0.3,
        "c0": 1e-09,
        "tan0": 0.0,
        "i_n": 373.61960729448515
      },
      {
        "id": 8,
        "from_node": 1,
        "to_node": 2,
        "from_status": 1,
        "to_status": 1,
        "r1": 0.5856491751252768,
        "x1": 2.33164890513548,
        "c1": 3.5573930502371253e-07,
        "tan1": 0.0,
        "r0": 0.3,
        "x0": 0.3,
        "c0": 1e-09,
        "tan0": 0.0,
        "i_n": 398.3528991839372
      },
      {
        "id": 9,
        "from_node": 2,
        "to_node": 3,
        "from_status": 1,
        "to_status": 1,
        "r1": 1.7216996933746975,
        "x1": 4.675177777477991,
        "c1": 2.0636682863930312e-07,
        "tan1": 0.0,
        "r0": 0.3,
        "x0": 0.3,
        "c0": 1e-09,
        "tan0": 0.0,
        "i_n": 361.6162814918148
      },
      {
        "id": 10,
        "from_node": 3,
        "to_node": 4,
        "from_status": 1,
        "to_status": 1,
        "r1": 1.5668539786112012,
        "x1": 1.5281924204840613,
        "c1": 7.266233228994156e-07,
        "tan1": 0.0,
        "r0": 0.3,
        "x0": 0.3,
        "c0": 1e-09,
        "tan0": 0.0,
        "i_n": 426.26260875964164
      }
    ],
    "sym_load": [
      {
        "id": 11,
        "node": 1,
        "status": 1,
        "type": 1,
        "p_specified": -2075.7256761799945,
        "q_specified": -777.8628819150363
      },
      {
        "id": 12,
        "node": 3,
        "status": 1,
        "type": 1,
        "p_specified": 86043.47362224126,
        "q_specified": 2911.425002006925
      },
      {
        "id": 13,
        "node": 4,
        "status": 1,
        "type": 0,
        "p_specified": -1948.6949455574504,
        "q_specified": 8900.496190609676
      }
    ],
    "shunt": [
      {
        "id": 14,
        "node": 0,
        "status": 1,
        "g1": 1.4031812201393757e-05,
        "b1": -6.556109843544906e-05,
        "g0": 0.0001,
        "b0": 0.0001
      }
    ]
  }
}